Circuit: * C:\Users\ahmetcan.akuz\Documents\GitHub\Optimus-Primary-Winding\Flyback_design_v2\464_proje_dizili.asc

Error on line 7 : d2 vd n001 rb168vym100
	 Unable to find definition of model "rb168vym100"
Error on line 25 : d3 0 n003 tfz33b
	 Unable to find definition of model "tfz33b"
Per .tran options, skipping operating point for transient analysis.

pin: AVG(-v(vin)*i(v1))=54.2998 FROM 0 TO 0.01
pout: AVG(v(vo)*i(r1))=42.4356 FROM 0 TO 0.01
eff: pout/pin=0.781505


Date: Sun May 21 17:49:25 2023
Total elapsed time: 10.412 seconds.

tnom = 27
temp = 27
method = modified trap
totiter = 1257157
traniter = 1257157
tranpoints = 339735
accept = 247684
rejected = 92051
matrix size = 61
fillins = 45
solver = Normal
Thread vector: 4.7/10.6[1] 3.0/2.0[2] 0.5/0.6[1] 0.1/0.9[1]  2592/500
Matrix Compiler1: 5.38 KB object code size  0.9/0.6/[0.3]
Matrix Compiler2: 5.32 KB object code size  0.4/0.6/[0.2]

