Circuit: * C:\Users\ahmetcan.akuz\Documents\GitHub\Optimus-Primary-Winding\Flyback_design_v2\464_proje_dizili.asc

Error on line 7 : d2 vd n001 rb168vym100
	 Unable to find definition of model "rb168vym100"
Error on line 25 : d3 0 n003 tfz33b
	 Unable to find definition of model "tfz33b"
Per .tran options, skipping operating point for transient analysis.

pin: AVG(-v(vin)*i(v1))=54.4762 FROM 0 TO 0.01
pout: AVG(v(vo)*i(r1))=42.4338 FROM 0 TO 0.01
eff: pout/pin=0.778941


Date: Mon May 22 14:09:33 2023
Total elapsed time: 9.167 seconds.

tnom = 27
temp = 27
method = modified trap
totiter = 1203479
traniter = 1203479
tranpoints = 329746
accept = 241314
rejected = 88432
matrix size = 61
fillins = 45
solver = Normal
Thread vector: 4.3/3.5[2] 2.1/1.6[2] 0.4/0.5[1] 0.1/0.7[1]  2592/500
Matrix Compiler1: 5.38 KB object code size  0.9/0.4/[0.2]
Matrix Compiler2: 5.32 KB object code size  0.4/0.4/[0.2]

