Circuit: * C:\Users\ahmetcan.akuz\Documents\GitHub\Proje_LT_Spice\464_proje_dizili.asc

Warning: Multiple definitions of model "2scr375p" Type: BJT
Warning: Multiple definitions of model "bc857b" Type: BJT
Warning: Multiple definitions of model "bc847c" Type: BJT
Warning: Multiple definitions of model "bc847b" Type: BJT
R2: both pins shorted together -- ignoring.
Error on line 7 : d2 vd n001 rb168vym100
	 Unable to find definition of model "rb168vym100"
Error on line 25 : d3 0 vo tfz33b
	 Unable to find definition of model "tfz33b"
Limiting fall time of source v2 to 10
WARNING: Less than two connections to node NC_02.  This node is used by SW.
Per .tran options, skipping operating point for transient analysis.

pin: AVG(-v(vin)*i(v1))=54.2982 FROM 0 TO 0.01
pout: AVG(v(vo)*i(r1))=42.3507 FROM 0 TO 0.01
eff: pout/pin=0.779965


Date: Sat May 13 13:48:10 2023
Total elapsed time: 10.625 seconds.

tnom = 27
temp = 27
method = modified trap
totiter = 1198958
traniter = 1198958
tranpoints = 319355
accept = 228356
rejected = 90999
matrix size = 67
fillins = 61
solver = Normal
Thread vector: 2.8/2.5[2] 2.0/1.5[2] 0.3/0.4[1] 0.1/0.8[1]  2592/500
Matrix Compiler1: 6.72 KB object code size  0.9/0.4/[0.3]
Matrix Compiler2: 6.05 KB object code size  0.3/0.5/[0.2]

