Circuit: * D:\Documents\GitHub\Optimus-Primary-Winding\464_proje_dizili.asc

Limiting fall time of source v2 to 10
WARNING: Less than two connections to node NC_02.  This node is used by SW.
Per .tran options, skipping operating point for transient analysis.
Heightened Def Con from 0.00249786 to 0.00249786

Date: Wed May 17 09:56:33 2023
Total elapsed time: 12.247 seconds.

tnom = 27
temp = 27
method = modified trap
totiter = 867016
traniter = 867016
tranpoints = 223058
accept = 147887
rejected = 75172
matrix size = 70
fillins = 61
solver = Normal
Thread vector: 7.5/5.1[2] 2.4/3.0[1] 0.7/1.1[1] 0.9/1.0[1]  2592/500
Matrix Compiler1: 6.66 KB object code size  1.8/0.7/[0.3]
Matrix Compiler2: 6.18 KB object code size  0.9/0.7/[0.6]

