Circuit: * C:\Users\ahmetcan.akuz\Documents\GitHub\Optimus-Primary-Winding\Flyback_v3\464_proje_dizili.asc

Error on line 7 : d2 vd n001 rb168vym100
	 Unable to find definition of model "rb168vym100"
Per .tran options, skipping operating point for transient analysis.

pin: AVG(-v(vin)*i(v1))=61.9409 FROM 0 TO 0.01
pout: AVG(v(vo)*i(r1))=43.4409 FROM 0 TO 0.01
eff: pout/pin=0.701328


Date: Wed Jun 14 18:30:19 2023
Total elapsed time: 10.621 seconds.

tnom = 27
temp = 27
method = modified trap
totiter = 1121934
traniter = 1121934
tranpoints = 308398
accept = 229946
rejected = 78452
matrix size = 62
fillins = 45
solver = Normal
Thread vector: 6.7/5.0[2] 2.4/1.3[2] 0.6/0.5[2] 0.2/1.1[1]  2592/500
Matrix Compiler1: 5.43 KB object code size  0.7/0.4/[0.3]
Matrix Compiler2: 5.39 KB object code size  0.3/0.5/[0.3]

