Circuit: * C:\Users\ahmetcan.akuz\Documents\GitHub\Optimus-Primary-Winding\Flyback_v3\464_proje_dizili.asc

Per .tran options, skipping operating point for transient analysis.
Heightened Def Con from 0.000929217 to 0.000929218
Heightened Def Con from 0.00119861 to 0.00119861
Heightened Def Con from 0.00124578 to 0.00124578
Heightened Def Con from 0.00143616 to 0.00143616
Heightened Def Con from 0.00157939 to 0.00157939
Heightened Def Con from 0.00159486 to 0.00159486
Heightened Def Con from 0.00189643 to 0.00189643
Heightened Def Con from 0.00216667 to 0.00216667
Heightened Def Con from 0.00318151 to 0.00318151
Heightened Def Con from 0.00437147 to 0.00437147
Heightened Def Con from 0.00438766 to 0.00438766
Heightened Def Con from 0.00503808 to 0.00503808
Heightened Def Con from 0.00529336 to 0.00529336
Heightened Def Con from 0.00638742 to 0.00638743
Heightened Def Con from 0.00644999 to 0.00645
Heightened Def Con from 0.00815011 to 0.00815011
Heightened Def Con from 0.00819772 to 0.00819772
Heightened Def Con from 0.00857726 to 0.00857726
Heightened Def Con from 0.0089734 to 0.0089734
Heightened Def Con from 0.0090226 to 0.0090226
Heightened Def Con from 0.00929177 to 0.00929177
Heightened Def Con from 0.00981615 to 0.00981615
Heightened Def Con from 0.0098959 to 0.0098959

pin: AVG(-v(vin)*i(v1))=60.11 FROM 0 TO 0.01
pout: AVG(v(vo)*i(r1))=43.9559 FROM 0 TO 0.01
eff: pout/pin=0.731259


Date: Fri Jun 16 10:44:22 2023
Total elapsed time: 10.175 seconds.

tnom = 27
temp = 27
method = modified trap
totiter = 1186472
traniter = 1186472
tranpoints = 316228
accept = 235942
rejected = 80309
matrix size = 63
fillins = 47
solver = Normal
Thread vector: 3.8/4.4[1] 2.6/1.5[2] 0.6/0.4[2] 0.1/0.9[1]  2592/500
Matrix Compiler1: 5.56 KB object code size  0.7/0.5/[0.2]
Matrix Compiler2: 5.49 KB object code size  0.3/0.7/[0.2]

