Circuit: * D:\Documents\GitHub\Optimus-Primary-Winding\Flyback_v3\464_proje_dizili.asc

Per .tran options, skipping operating point for transient analysis.
Heightened Def Con from 0.000129478 to 0.000129479
Heightened Def Con from 0.000499905 to 0.000499906
Heightened Def Con from 0.00338912 to 0.00338912
Heightened Def Con from 0.00551846 to 0.00551846
Heightened Def Con from 0.00556613 to 0.00556613

pin: AVG(-v(vin)*i(v1))=36.0157 FROM 0 TO 0.01
pout: AVG(v(vo)*i(r1))=29.0619 FROM 0 TO 0.01
eff: pout/pin=0.806923


Date: Wed Jun 14 18:56:11 2023
Total elapsed time: 18.311 seconds.

tnom = 27
temp = 27
method = modified trap
totiter = 1388409
traniter = 1388409
tranpoints = 336429
accept = 246182
rejected = 90252
matrix size = 63
fillins = 53
solver = Normal
Thread vector: 6.1/4.9[2] 2.2/2.4[1] 0.8/1.1[1] 0.2/1.2[1]  2592/500
Matrix Compiler1: 6.08 KB object code size  1.0/0.6/[0.5]
Matrix Compiler2: 5.70 KB object code size  0.4/0.7/[0.3]

