Circuit: * C:\Users\ahmetcan.akuz\Documents\GitHub\Optimus-Primary-Winding\Flyback_v3\464_proje_dizili.asc

Warning: Multiple definitions of model "2scr375p" Type: BJT
Warning: Multiple definitions of model "bc857b" Type: BJT
Warning: Multiple definitions of model "bc847c" Type: BJT
Warning: Multiple definitions of model "bc847b" Type: BJT
Per .tran options, skipping operating point for transient analysis.
Heightened Def Con from 0.000580986 to 0.000580987
Heightened Def Con from 0.000628799 to 0.0006288
Heightened Def Con from 0.000644716 to 0.000644717
Heightened Def Con from 0.00077163 to 0.000771631
Heightened Def Con from 0.000866577 to 0.000866578
Heightened Def Con from 0.00103757 to 0.00103757
Heightened Def Con from 0.00143496 to 0.00143496
Heightened Def Con from 0.00149854 to 0.00149854
Heightened Def Con from 0.00196011 to 0.00196011
Heightened Def Con from 0.00197628 to 0.00197628
Heightened Def Con from 0.00199188 to 0.00199188
Heightened Def Con from 0.00213504 to 0.00213505
Heightened Def Con from 0.00218266 to 0.00218266
Heightened Def Con from 0.002199 to 0.002199
Heightened Def Con from 0.00223047 to 0.00223047
Heightened Def Con from 0.00224643 to 0.00224643
Heightened Def Con from 0.0022624 to 0.0022624
Heightened Def Con from 0.00229443 to 0.00229444
Heightened Def Con from 0.00232628 to 0.00232628
Heightened Def Con from 0.00253296 to 0.00253296
Heightened Def Con from 0.00278736 to 0.00278737
Heightened Def Con from 0.00289884 to 0.00289884
Heightened Def Con from 0.00321726 to 0.00321726
Heightened Def Con from 0.00326477 to 0.00326477
Heightened Def Con from 0.0032806 to 0.0032806
Heightened Def Con from 0.0032966 to 0.0032966
Heightened Def Con from 0.00350365 to 0.00350366
Heightened Def Con from 0.00364676 to 0.00364676
Heightened Def Con from 0.00374203 to 0.00374203
Heightened Def Con from 0.0039015 to 0.0039015
Heightened Def Con from 0.00396498 to 0.00396498
Heightened Def Con from 0.00398105 to 0.00398105
Heightened Def Con from 0.0040764 to 0.0040764
Heightened Def Con from 0.00407652 to 0.00407652
Heightened Def Con from 0.00421943 to 0.00421944
Heightened Def Con from 0.00428314 to 0.00428315
Heightened Def Con from 0.00436271 to 0.00436271
Heightened Def Con from 0.00439478 to 0.00439478
Heightened Def Con from 0.00456969 to 0.00456969
Heightened Def Con from 0.00464923 to 0.00464923
Heightened Def Con from 0.00466504 to 0.00466504
Heightened Def Con from 0.00482101 to 0.00482101
Heightened Def Con from 0.00499947 to 0.00499947
Heightened Def Con from 0.00501196 to 0.00501196
Heightened Def Con from 0.005031 to 0.005031
Heightened Def Con from 0.00511058 to 0.00511059
Heightened Def Con from 0.00536523 to 0.00536523
Heightened Def Con from 0.00563589 to 0.00563589
Heightened Def Con from 0.00566785 to 0.00566785
Heightened Def Con from 0.00582685 to 0.00582685
Heightened Def Con from 0.00587473 to 0.00587473
Heightened Def Con from 0.00641237 to 0.00641237
Heightened Def Con from 0.00682931 to 0.00682931
Heightened Def Con from 0.00686138 to 0.00686138
Heightened Def Con from 0.00694096 to 0.00694096
Heightened Def Con from 0.00729104 to 0.00729104
Heightened Def Con from 0.0073831 to 0.0073831
Heightened Def Con from 0.0073863 to 0.0073863
Heightened Def Con from 0.00751357 to 0.00751357
Heightened Def Con from 0.00762501 to 0.00762501
Heightened Def Con from 0.0077207 to 0.0077207
Heightened Def Con from 0.00781618 to 0.00781618
Heightened Def Con from 0.00891412 to 0.00891412
Heightened Def Con from 0.00902536 to 0.00902536
Heightened Def Con from 0.0091336 to 0.0091336
Heightened Def Con from 0.00935965 to 0.00935965
Heightened Def Con from 0.00939151 to 0.00939151
Heightened Def Con from 0.00943939 to 0.00943939
Heightened Def Con from 0.00959853 to 0.00959853
Heightened Def Con from 0.00982117 to 0.00982117
Heightened Def Con from 0.00990088 to 0.00990088

pin: AVG(-v(vin)*i(v1))=20.2722 FROM 0 TO 0.01
pout: AVG(v(vo)*i(r1))=10.7687 FROM 0 TO 0.01
eff: pout/pin=0.531207


Date: Sat Jun 17 17:33:58 2023
Total elapsed time: 10.120 seconds.

tnom = 27
temp = 27
method = modified trap
totiter = 1237509
traniter = 1237509
tranpoints = 334699
accept = 243487
rejected = 91283
matrix size = 67
fillins = 61
solver = Normal
Thread vector: 3.4/3.1[1] 2.5/1.6[2] 0.7/0.6[2] 0.2/1.3[1]  2592/500
Matrix Compiler1: 6.67 KB object code size  1.6/1.2/[0.4]
Matrix Compiler2: 6.06 KB object code size  0.5/0.9/[0.3]

